/*---------------------------------------------------------------------------*\
  =========                 |
  \\      /  F ield         | OpenFOAM: The Open Source CFD Toolbox
   \\    /   O peration     | Website:  https://openfoam.org
    \\  /    A nd           | Version:  13
     \\/     M anipulation  |
\*---------------------------------------------------------------------------*/
Build  : 13-cde978a97c93
Exec   : blockMesh
Date   : Jan 01 2026
Time   : 11:58:53
Host   : "ad4d760e5088"
PID    : 207
I/O    : uncollated
Case   : /home/openfoam/work
nProcs : 1
sigFpe : Floating point exception trapping - not supported on this platform
fileModificationChecking : Monitoring run-time modified files using timeStampMaster (fileModificationSkew 10)
allowSystemOperations : Allowing user-supplied system call operations

// * * * * * * * * * * * * * * * * * * * * * * * * * * * * * * * * * * * * * //
Create time

Expanding #calc at line 25 in file "/home/openfoam/work/system/../system/blockMeshDict"
Creating new library in "dynamicCode/_f027a00cf43b8f64c9175dbb69b06b1575a50da9/platforms/linuxArm64GccDPInt32Opt/lib/libcodeStream_f027a00cf43b8f64c9175dbb69b06b1575a50da9.so"
"/opt/openfoam13/etc/codeTemplates/dynamicCode/codeStreamTemplate.C" "/home/openfoam/work/dynamicCode/_f027a00cf43b8f64c9175dbb69b06b1575a50da9/codeStreamTemplate.C"
Invoking "wmake -s libso /home/openfoam/work/dynamicCode/_f027a00cf43b8f64c9175dbb69b06b1575a50da9"
wmake libso /home/openfoam/work/dynamicCode/_f027a00cf43b8f64c9175dbb69b06b1575a50da9
    ln: ./lnInclude
    wmkdep: codeStreamTemplate.C
    Ctoo: codeStreamTemplate.C
    ld: /home/openfoam/work/dynamicCode/_f027a00cf43b8f64c9175dbb69b06b1575a50da9/../platforms/linuxArm64GccDPInt32Opt/lib/libcodeStream_f027a00cf43b8f64c9175dbb69b06b1575a50da9.so
Expanding #calc at line 29 in file "/home/openfoam/work/system/../system/blockMeshDict"
Creating new library in "dynamicCode/_f542c52af0b2ea28cb19c1932be77519fee8fa13/platforms/linuxArm64GccDPInt32Opt/lib/libcodeStream_f542c52af0b2ea28cb19c1932be77519fee8fa13.so"
"/opt/openfoam13/etc/codeTemplates/dynamicCode/codeStreamTemplate.C" "/home/openfoam/work/dynamicCode/_f542c52af0b2ea28cb19c1932be77519fee8fa13/codeStreamTemplate.C"
Invoking "wmake -s libso /home/openfoam/work/dynamicCode/_f542c52af0b2ea28cb19c1932be77519fee8fa13"
wmake libso /home/openfoam/work/dynamicCode/_f542c52af0b2ea28cb19c1932be77519fee8fa13
    ln: ./lnInclude
    wmkdep: codeStreamTemplate.C
    Ctoo: codeStreamTemplate.C
    ld: /home/openfoam/work/dynamicCode/_f542c52af0b2ea28cb19c1932be77519fee8fa13/../platforms/linuxArm64GccDPInt32Opt/lib/libcodeStream_f542c52af0b2ea28cb19c1932be77519fee8fa13.so
Expanding #calc at line 32 in file "/home/openfoam/work/system/../system/blockMeshDict"
Creating new library in "dynamicCode/_43e4758d5b4c507783852fee5cc64769b8006f8d/platforms/linuxArm64GccDPInt32Opt/lib/libcodeStream_43e4758d5b4c507783852fee5cc64769b8006f8d.so"
"/opt/openfoam13/etc/codeTemplates/dynamicCode/codeStreamTemplate.C" "/home/openfoam/work/dynamicCode/_43e4758d5b4c507783852fee5cc64769b8006f8d/codeStreamTemplate.C"
Invoking "wmake -s libso /home/openfoam/work/dynamicCode/_43e4758d5b4c507783852fee5cc64769b8006f8d"
wmake libso /home/openfoam/work/dynamicCode/_43e4758d5b4c507783852fee5cc64769b8006f8d
    ln: ./lnInclude
    wmkdep: codeStreamTemplate.C
    Ctoo: codeStreamTemplate.C
    ld: /home/openfoam/work/dynamicCode/_43e4758d5b4c507783852fee5cc64769b8006f8d/../platforms/linuxArm64GccDPInt32Opt/lib/libcodeStream_43e4758d5b4c507783852fee5cc64769b8006f8d.so
Expanding #calc at line 35 in file "/home/openfoam/work/system/../system/blockMeshDict"
Creating new library in "dynamicCode/_ccba2136f7b6560c7609bfda1d8cebbec12d9c7f/platforms/linuxArm64GccDPInt32Opt/lib/libcodeStream_ccba2136f7b6560c7609bfda1d8cebbec12d9c7f.so"
"/opt/openfoam13/etc/codeTemplates/dynamicCode/codeStreamTemplate.C" "/home/openfoam/work/dynamicCode/_ccba2136f7b6560c7609bfda1d8cebbec12d9c7f/codeStreamTemplate.C"
Invoking "wmake -s libso /home/openfoam/work/dynamicCode/_ccba2136f7b6560c7609bfda1d8cebbec12d9c7f"
wmake libso /home/openfoam/work/dynamicCode/_ccba2136f7b6560c7609bfda1d8cebbec12d9c7f
    ln: ./lnInclude
    wmkdep: codeStreamTemplate.C
    Ctoo: codeStreamTemplate.C
    ld: /home/openfoam/work/dynamicCode/_ccba2136f7b6560c7609bfda1d8cebbec12d9c7f/../platforms/linuxArm64GccDPInt32Opt/lib/libcodeStream_ccba2136f7b6560c7609bfda1d8cebbec12d9c7f.so
Expanding #calc at line 36 in file "/home/openfoam/work/system/../system/blockMeshDict"
Creating new library in "dynamicCode/_fbfe3bfbb5d69c034c7dc51ef90a84f7468f7056/platforms/linuxArm64GccDPInt32Opt/lib/libcodeStream_fbfe3bfbb5d69c034c7dc51ef90a84f7468f7056.so"
"/opt/openfoam13/etc/codeTemplates/dynamicCode/codeStreamTemplate.C" "/home/openfoam/work/dynamicCode/_fbfe3bfbb5d69c034c7dc51ef90a84f7468f7056/codeStreamTemplate.C"
Invoking "wmake -s libso /home/openfoam/work/dynamicCode/_fbfe3bfbb5d69c034c7dc51ef90a84f7468f7056"
wmake libso /home/openfoam/work/dynamicCode/_fbfe3bfbb5d69c034c7dc51ef90a84f7468f7056
    ln: ./lnInclude
    wmkdep: codeStreamTemplate.C
    Ctoo: codeStreamTemplate.C
    ld: /home/openfoam/work/dynamicCode/_fbfe3bfbb5d69c034c7dc51ef90a84f7468f7056/../platforms/linuxArm64GccDPInt32Opt/lib/libcodeStream_fbfe3bfbb5d69c034c7dc51ef90a84f7468f7056.so
Expanding #calc at line 42 in file "/home/openfoam/work/system/../system/blockMeshDict"
Creating new library in "dynamicCode/_1468c45fe11c9da1d3b26ab45c75ed3c0c289cbf/platforms/linuxArm64GccDPInt32Opt/lib/libcodeStream_1468c45fe11c9da1d3b26ab45c75ed3c0c289cbf.so"
"/opt/openfoam13/etc/codeTemplates/dynamicCode/codeStreamTemplate.C" "/home/openfoam/work/dynamicCode/_1468c45fe11c9da1d3b26ab45c75ed3c0c289cbf/codeStreamTemplate.C"
Invoking "wmake -s libso /home/openfoam/work/dynamicCode/_1468c45fe11c9da1d3b26ab45c75ed3c0c289cbf"
wmake libso /home/openfoam/work/dynamicCode/_1468c45fe11c9da1d3b26ab45c75ed3c0c289cbf
    ln: ./lnInclude
    wmkdep: codeStreamTemplate.C
    Ctoo: codeStreamTemplate.C
    ld: /home/openfoam/work/dynamicCode/_1468c45fe11c9da1d3b26ab45c75ed3c0c289cbf/../platforms/linuxArm64GccDPInt32Opt/lib/libcodeStream_1468c45fe11c9da1d3b26ab45c75ed3c0c289cbf.so
Expanding #calc at line 82 in file "/home/openfoam/work/system/../system/blockMeshDict"
Creating new library in "dynamicCode/_fafd230643a4e3720a46bb5d075ea498de35fe8c/platforms/linuxArm64GccDPInt32Opt/lib/libcodeStream_fafd230643a4e3720a46bb5d075ea498de35fe8c.so"
"/opt/openfoam13/etc/codeTemplates/dynamicCode/codeStreamTemplate.C" "/home/openfoam/work/dynamicCode/_fafd230643a4e3720a46bb5d075ea498de35fe8c/codeStreamTemplate.C"
Invoking "wmake -s libso /home/openfoam/work/dynamicCode/_fafd230643a4e3720a46bb5d075ea498de35fe8c"
wmake libso /home/openfoam/work/dynamicCode/_fafd230643a4e3720a46bb5d075ea498de35fe8c
    ln: ./lnInclude
    wmkdep: codeStreamTemplate.C
    Ctoo: codeStreamTemplate.C
    ld: /home/openfoam/work/dynamicCode/_fafd230643a4e3720a46bb5d075ea498de35fe8c/../platforms/linuxArm64GccDPInt32Opt/lib/libcodeStream_fafd230643a4e3720a46bb5d075ea498de35fe8c.so
Expanding #calc at line 83 in file "/home/openfoam/work/system/../system/blockMeshDict"
Creating new library in "dynamicCode/_a131061b3375202f0a84d508ce4c60e00ea83faf/platforms/linuxArm64GccDPInt32Opt/lib/libcodeStream_a131061b3375202f0a84d508ce4c60e00ea83faf.so"
"/opt/openfoam13/etc/codeTemplates/dynamicCode/codeStreamTemplate.C" "/home/openfoam/work/dynamicCode/_a131061b3375202f0a84d508ce4c60e00ea83faf/codeStreamTemplate.C"
Invoking "wmake -s libso /home/openfoam/work/dynamicCode/_a131061b3375202f0a84d508ce4c60e00ea83faf"
wmake libso /home/openfoam/work/dynamicCode/_a131061b3375202f0a84d508ce4c60e00ea83faf
    ln: ./lnInclude
    wmkdep: codeStreamTemplate.C
    Ctoo: codeStreamTemplate.C
    ld: /home/openfoam/work/dynamicCode/_a131061b3375202f0a84d508ce4c60e00ea83faf/../platforms/linuxArm64GccDPInt32Opt/lib/libcodeStream_a131061b3375202f0a84d508ce4c60e00ea83faf.so
Expanding #calc at line 84 in file "/home/openfoam/work/system/../system/blockMeshDict"
Creating new library in "dynamicCode/_abfa0e374d753026b52442104a677bfdd13742f4/platforms/linuxArm64GccDPInt32Opt/lib/libcodeStream_abfa0e374d753026b52442104a677bfdd13742f4.so"
"/opt/openfoam13/etc/codeTemplates/dynamicCode/codeStreamTemplate.C" "/home/openfoam/work/dynamicCode/_abfa0e374d753026b52442104a677bfdd13742f4/codeStreamTemplate.C"
Invoking "wmake -s libso /home/openfoam/work/dynamicCode/_abfa0e374d753026b52442104a677bfdd13742f4"
wmake libso /home/openfoam/work/dynamicCode/_abfa0e374d753026b52442104a677bfdd13742f4
    ln: ./lnInclude
    wmkdep: codeStreamTemplate.C
    Ctoo: codeStreamTemplate.C
    ld: /home/openfoam/work/dynamicCode/_abfa0e374d753026b52442104a677bfdd13742f4/../platforms/linuxArm64GccDPInt32Opt/lib/libcodeStream_abfa0e374d753026b52442104a677bfdd13742f4.so
Expanding #calc at line 86 in file "/home/openfoam/work/system/../system/blockMeshDict"
Creating new library in "dynamicCode/_b5a4b66399465b976832d240d7d34f59c5f47d2f/platforms/linuxArm64GccDPInt32Opt/lib/libcodeStream_b5a4b66399465b976832d240d7d34f59c5f47d2f.so"
"/opt/openfoam13/etc/codeTemplates/dynamicCode/codeStreamTemplate.C" "/home/openfoam/work/dynamicCode/_b5a4b66399465b976832d240d7d34f59c5f47d2f/codeStreamTemplate.C"
Invoking "wmake -s libso /home/openfoam/work/dynamicCode/_b5a4b66399465b976832d240d7d34f59c5f47d2f"
wmake libso /home/openfoam/work/dynamicCode/_b5a4b66399465b976832d240d7d34f59c5f47d2f
    ln: ./lnInclude
    wmkdep: codeStreamTemplate.C
    Ctoo: codeStreamTemplate.C
    ld: /home/openfoam/work/dynamicCode/_b5a4b66399465b976832d240d7d34f59c5f47d2f/../platforms/linuxArm64GccDPInt32Opt/lib/libcodeStream_b5a4b66399465b976832d240d7d34f59c5f47d2f.so
Expanding #calc at line 88 in file "/home/openfoam/work/system/../system/blockMeshDict"
Creating new library in "dynamicCode/_6f798369793b0b2ca6ca9a8ca5cd9c5d29ce362c/platforms/linuxArm64GccDPInt32Opt/lib/libcodeStream_6f798369793b0b2ca6ca9a8ca5cd9c5d29ce362c.so"
"/opt/openfoam13/etc/codeTemplates/dynamicCode/codeStreamTemplate.C" "/home/openfoam/work/dynamicCode/_6f798369793b0b2ca6ca9a8ca5cd9c5d29ce362c/codeStreamTemplate.C"
Invoking "wmake -s libso /home/openfoam/work/dynamicCode/_6f798369793b0b2ca6ca9a8ca5cd9c5d29ce362c"
wmake libso /home/openfoam/work/dynamicCode/_6f798369793b0b2ca6ca9a8ca5cd9c5d29ce362c
    ln: ./lnInclude
    wmkdep: codeStreamTemplate.C
    Ctoo: codeStreamTemplate.C
    ld: /home/openfoam/work/dynamicCode/_6f798369793b0b2ca6ca9a8ca5cd9c5d29ce362c/../platforms/linuxArm64GccDPInt32Opt/lib/libcodeStream_6f798369793b0b2ca6ca9a8ca5cd9c5d29ce362c.so
Expanding #calc at line 89 in file "/home/openfoam/work/system/../system/blockMeshDict"
Expanding #calc at line 116 in file "/home/openfoam/work/system/../system/blockMeshDict"
Creating new library in "dynamicCode/_b76321560e2ed43561906c80c82067b67f860a1a/platforms/linuxArm64GccDPInt32Opt/lib/libcodeStream_b76321560e2ed43561906c80c82067b67f860a1a.so"
"/opt/openfoam13/etc/codeTemplates/dynamicCode/codeStreamTemplate.C" "/home/openfoam/work/dynamicCode/_b76321560e2ed43561906c80c82067b67f860a1a/codeStreamTemplate.C"
Invoking "wmake -s libso /home/openfoam/work/dynamicCode/_b76321560e2ed43561906c80c82067b67f860a1a"
wmake libso /home/openfoam/work/dynamicCode/_b76321560e2ed43561906c80c82067b67f860a1a
    ln: ./lnInclude
    wmkdep: codeStreamTemplate.C
    Ctoo: codeStreamTemplate.C
    ld: /home/openfoam/work/dynamicCode/_b76321560e2ed43561906c80c82067b67f860a1a/../platforms/linuxArm64GccDPInt32Opt/lib/libcodeStream_b76321560e2ed43561906c80c82067b67f860a1a.so
Expanding #calc at line 117 in file "/home/openfoam/work/system/../system/blockMeshDict"
Creating new library in "dynamicCode/_dab03e35a8c1ca8c187a1a58387f46088cecf9bb/platforms/linuxArm64GccDPInt32Opt/lib/libcodeStream_dab03e35a8c1ca8c187a1a58387f46088cecf9bb.so"
"/opt/openfoam13/etc/codeTemplates/dynamicCode/codeStreamTemplate.C" "/home/openfoam/work/dynamicCode/_dab03e35a8c1ca8c187a1a58387f46088cecf9bb/codeStreamTemplate.C"
Invoking "wmake -s libso /home/openfoam/work/dynamicCode/_dab03e35a8c1ca8c187a1a58387f46088cecf9bb"
wmake libso /home/openfoam/work/dynamicCode/_dab03e35a8c1ca8c187a1a58387f46088cecf9bb
    ln: ./lnInclude
    wmkdep: codeStreamTemplate.C
    Ctoo: codeStreamTemplate.C
    ld: /home/openfoam/work/dynamicCode/_dab03e35a8c1ca8c187a1a58387f46088cecf9bb/../platforms/linuxArm64GccDPInt32Opt/lib/libcodeStream_dab03e35a8c1ca8c187a1a58387f46088cecf9bb.so
Expanding #calc at line 25 in file "/home/openfoam/work/system/../system/blockMeshDict"
Expanding #calc at line 29 in file "/home/openfoam/work/system/../system/blockMeshDict"
Expanding #calc at line 32 in file "/home/openfoam/work/system/../system/blockMeshDict"
Expanding #calc at line 35 in file "/home/openfoam/work/system/../system/blockMeshDict"
Expanding #calc at line 36 in file "/home/openfoam/work/system/../system/blockMeshDict"
Expanding #calc at line 42 in file "/home/openfoam/work/system/../system/blockMeshDict"
Expanding #calc at line 82 in file "/home/openfoam/work/system/../system/blockMeshDict"
Expanding #calc at line 83 in file "/home/openfoam/work/system/../system/blockMeshDict"
Expanding #calc at line 84 in file "/home/openfoam/work/system/../system/blockMeshDict"
Expanding #calc at line 86 in file "/home/openfoam/work/system/../system/blockMeshDict"
Expanding #calc at line 88 in file "/home/openfoam/work/system/../system/blockMeshDict"
Expanding #calc at line 89 in file "/home/openfoam/work/system/../system/blockMeshDict"
Expanding #calc at line 116 in file "/home/openfoam/work/system/../system/blockMeshDict"
Expanding #calc at line 117 in file "/home/openfoam/work/system/../system/blockMeshDict"
Deleting polyMesh directory
    "/home/openfoam/work/constant/polyMesh"
Reading "blockMeshDict"

Creating block mesh from
    "system/blockMeshDict"
Expanding #calc at line 25 in file "/home/openfoam/work/system/blockMeshDict"
Expanding #calc at line 29 in file "/home/openfoam/work/system/blockMeshDict"
Expanding #calc at line 32 in file "/home/openfoam/work/system/blockMeshDict"
Expanding #calc at line 35 in file "/home/openfoam/work/system/blockMeshDict"
Expanding #calc at line 36 in file "/home/openfoam/work/system/blockMeshDict"
Expanding #calc at line 42 in file "/home/openfoam/work/system/blockMeshDict"
Expanding #calc at line 82 in file "/home/openfoam/work/system/blockMeshDict"
Expanding #calc at line 83 in file "/home/openfoam/work/system/blockMeshDict"
Expanding #calc at line 84 in file "/home/openfoam/work/system/blockMeshDict"
Expanding #calc at line 86 in file "/home/openfoam/work/system/blockMeshDict"
Expanding #calc at line 88 in file "/home/openfoam/work/system/blockMeshDict"
Expanding #calc at line 89 in file "/home/openfoam/work/system/blockMeshDict"
Expanding #calc at line 116 in file "/home/openfoam/work/system/blockMeshDict"
Expanding #calc at line 117 in file "/home/openfoam/work/system/blockMeshDict"
Creating block edges
No non-planar block faces defined
Creating topology blocks
Creating topology patches

Creating block mesh topology

Basic statistics
    Number of internal faces : 8
    Number of boundary faces : 26
    Number of defined boundary faces : 26
    Number of undefined boundary faces : 0

Checking topology
Creating block offsets
Creating merge list .

Creating polyMesh from blockMesh
Creating points with scale 1
    Block 0 cell size :
        i : 0.00044374597 .. 0.44374597
        j : 0.016989798 .. 0.033974692 0.017004876 .. 0.034004844 0.016989798 .. 0.033974692 0.017004876 .. 0.034004844 
        k : 1
    Block 1 cell size :
        i : 0.00044374597 .. 0.44374597
        j : 0.037391194 .. 0.037391194 0.037424379 .. 0.037424379 0.037391194 .. 0.037391194 0.037424379 .. 0.037424379 
        k : 1
    Block 2 cell size :
        i : 0.47587709 .. 1.2372804 0.47422964 .. 1.2409307 0.47587709 .. 1.2372804 0.47422964 .. 1.2409307 
        j : 0.13591838 .. 0.27179753 0.14432577 .. 0.26926931 0.13591838 .. 0.27179753 0.14432577 .. 0.26926931 
        k : 1
    Block 3 cell size :
        i : 1.4144322 .. 8.4865935
        j : 0.32449685 .. 0.64899371
        k : 1
    Block 4 cell size :
        i : 0.58277353 .. 29.138676
        j : 0.29912955 .. 0.29912955 0.34271075 .. 0.34271075 0.29912955 .. 0.29912955 0.34271075 .. 0.34271075 
        k : 1
    Block 5 cell size :
        i : 0.68490987 .. 1.7806855 0.68345625 .. 1.7788733 0.68490987 .. 1.7806855 0.68345625 .. 1.7788733 
        j : 0.58277353 .. 29.138676 0.58001279 .. 29.000639 0.58277353 .. 29.138676 0.58001279 .. 29.000639 
        k : 1
    Block 6 cell size :
        i : 1.4144322 .. 8.4865935
        j : 0.51599739 .. 25.79987
        k : 1
Creating cells
Creating patches

Writing polyMesh
----------------
Mesh Information
----------------
  boundingBox: (-100 -5.8280464e-15 -0.5) (100 100 0.5)
  nPoints: 9852
  nCells: 4768
  nFaces: 19229
  nInternalFaces: 9379
----------------
Patches
----------------
  patch 0 (start: 9379 size: 61) name: inlet
  patch 1 (start: 9440 size: 44) name: outlet
  patch 2 (start: 9484 size: 53) name: cylinder
  patch 3 (start: 9537 size: 9692) name: frontAndBack

End

