/*---------------------------------------------------------------------------*\
  =========                 |
  \\      /  F ield         | OpenFOAM: The Open Source CFD Toolbox
   \\    /   O peration     | Website:  https://openfoam.org
    \\  /    A nd           | Version:  13
     \\/     M anipulation  |
\*---------------------------------------------------------------------------*/
Build  : 13-cde978a97c93
Exec   : blockMesh
Date   : Jan 01 2026
Time   : 11:58:22
Host   : "ba36af20d9f1"
PID    : 207
I/O    : uncollated
Case   : /home/openfoam/work
nProcs : 1
sigFpe : Floating point exception trapping - not supported on this platform
fileModificationChecking : Monitoring run-time modified files using timeStampMaster (fileModificationSkew 10)
allowSystemOperations : Allowing user-supplied system call operations

// * * * * * * * * * * * * * * * * * * * * * * * * * * * * * * * * * * * * * //
Create time

Expanding #calc at line 25 in file "/home/openfoam/work/system/../system/blockMeshDict"
Creating new library in "dynamicCode/_f027a00cf43b8f64c9175dbb69b06b1575a50da9/platforms/linuxArm64GccDPInt32Opt/lib/libcodeStream_f027a00cf43b8f64c9175dbb69b06b1575a50da9.so"
"/opt/openfoam13/etc/codeTemplates/dynamicCode/codeStreamTemplate.C" "/home/openfoam/work/dynamicCode/_f027a00cf43b8f64c9175dbb69b06b1575a50da9/codeStreamTemplate.C"
Invoking "wmake -s libso /home/openfoam/work/dynamicCode/_f027a00cf43b8f64c9175dbb69b06b1575a50da9"
wmake libso /home/openfoam/work/dynamicCode/_f027a00cf43b8f64c9175dbb69b06b1575a50da9
    ln: ./lnInclude
    wmkdep: codeStreamTemplate.C
    Ctoo: codeStreamTemplate.C
    ld: /home/openfoam/work/dynamicCode/_f027a00cf43b8f64c9175dbb69b06b1575a50da9/../platforms/linuxArm64GccDPInt32Opt/lib/libcodeStream_f027a00cf43b8f64c9175dbb69b06b1575a50da9.so
Expanding #calc at line 29 in file "/home/openfoam/work/system/../system/blockMeshDict"
Creating new library in "dynamicCode/_f542c52af0b2ea28cb19c1932be77519fee8fa13/platforms/linuxArm64GccDPInt32Opt/lib/libcodeStream_f542c52af0b2ea28cb19c1932be77519fee8fa13.so"
"/opt/openfoam13/etc/codeTemplates/dynamicCode/codeStreamTemplate.C" "/home/openfoam/work/dynamicCode/_f542c52af0b2ea28cb19c1932be77519fee8fa13/codeStreamTemplate.C"
Invoking "wmake -s libso /home/openfoam/work/dynamicCode/_f542c52af0b2ea28cb19c1932be77519fee8fa13"
wmake libso /home/openfoam/work/dynamicCode/_f542c52af0b2ea28cb19c1932be77519fee8fa13
    ln: ./lnInclude
    wmkdep: codeStreamTemplate.C
    Ctoo: codeStreamTemplate.C
    ld: /home/openfoam/work/dynamicCode/_f542c52af0b2ea28cb19c1932be77519fee8fa13/../platforms/linuxArm64GccDPInt32Opt/lib/libcodeStream_f542c52af0b2ea28cb19c1932be77519fee8fa13.so
Expanding #calc at line 32 in file "/home/openfoam/work/system/../system/blockMeshDict"
Creating new library in "dynamicCode/_43e4758d5b4c507783852fee5cc64769b8006f8d/platforms/linuxArm64GccDPInt32Opt/lib/libcodeStream_43e4758d5b4c507783852fee5cc64769b8006f8d.so"
"/opt/openfoam13/etc/codeTemplates/dynamicCode/codeStreamTemplate.C" "/home/openfoam/work/dynamicCode/_43e4758d5b4c507783852fee5cc64769b8006f8d/codeStreamTemplate.C"
Invoking "wmake -s libso /home/openfoam/work/dynamicCode/_43e4758d5b4c507783852fee5cc64769b8006f8d"
wmake libso /home/openfoam/work/dynamicCode/_43e4758d5b4c507783852fee5cc64769b8006f8d
    ln: ./lnInclude
    wmkdep: codeStreamTemplate.C
    Ctoo: codeStreamTemplate.C
    ld: /home/openfoam/work/dynamicCode/_43e4758d5b4c507783852fee5cc64769b8006f8d/../platforms/linuxArm64GccDPInt32Opt/lib/libcodeStream_43e4758d5b4c507783852fee5cc64769b8006f8d.so
Expanding #calc at line 35 in file "/home/openfoam/work/system/../system/blockMeshDict"
Creating new library in "dynamicCode/_ccba2136f7b6560c7609bfda1d8cebbec12d9c7f/platforms/linuxArm64GccDPInt32Opt/lib/libcodeStream_ccba2136f7b6560c7609bfda1d8cebbec12d9c7f.so"
"/opt/openfoam13/etc/codeTemplates/dynamicCode/codeStreamTemplate.C" "/home/openfoam/work/dynamicCode/_ccba2136f7b6560c7609bfda1d8cebbec12d9c7f/codeStreamTemplate.C"
Invoking "wmake -s libso /home/openfoam/work/dynamicCode/_ccba2136f7b6560c7609bfda1d8cebbec12d9c7f"
wmake libso /home/openfoam/work/dynamicCode/_ccba2136f7b6560c7609bfda1d8cebbec12d9c7f
    ln: ./lnInclude
    wmkdep: codeStreamTemplate.C
    Ctoo: codeStreamTemplate.C
    ld: /home/openfoam/work/dynamicCode/_ccba2136f7b6560c7609bfda1d8cebbec12d9c7f/../platforms/linuxArm64GccDPInt32Opt/lib/libcodeStream_ccba2136f7b6560c7609bfda1d8cebbec12d9c7f.so
Expanding #calc at line 36 in file "/home/openfoam/work/system/../system/blockMeshDict"
Creating new library in "dynamicCode/_fbfe3bfbb5d69c034c7dc51ef90a84f7468f7056/platforms/linuxArm64GccDPInt32Opt/lib/libcodeStream_fbfe3bfbb5d69c034c7dc51ef90a84f7468f7056.so"
"/opt/openfoam13/etc/codeTemplates/dynamicCode/codeStreamTemplate.C" "/home/openfoam/work/dynamicCode/_fbfe3bfbb5d69c034c7dc51ef90a84f7468f7056/codeStreamTemplate.C"
Invoking "wmake -s libso /home/openfoam/work/dynamicCode/_fbfe3bfbb5d69c034c7dc51ef90a84f7468f7056"
wmake libso /home/openfoam/work/dynamicCode/_fbfe3bfbb5d69c034c7dc51ef90a84f7468f7056
    ln: ./lnInclude
    wmkdep: codeStreamTemplate.C
    Ctoo: codeStreamTemplate.C
    ld: /home/openfoam/work/dynamicCode/_fbfe3bfbb5d69c034c7dc51ef90a84f7468f7056/../platforms/linuxArm64GccDPInt32Opt/lib/libcodeStream_fbfe3bfbb5d69c034c7dc51ef90a84f7468f7056.so
Expanding #calc at line 42 in file "/home/openfoam/work/system/../system/blockMeshDict"
Creating new library in "dynamicCode/_1468c45fe11c9da1d3b26ab45c75ed3c0c289cbf/platforms/linuxArm64GccDPInt32Opt/lib/libcodeStream_1468c45fe11c9da1d3b26ab45c75ed3c0c289cbf.so"
"/opt/openfoam13/etc/codeTemplates/dynamicCode/codeStreamTemplate.C" "/home/openfoam/work/dynamicCode/_1468c45fe11c9da1d3b26ab45c75ed3c0c289cbf/codeStreamTemplate.C"
Invoking "wmake -s libso /home/openfoam/work/dynamicCode/_1468c45fe11c9da1d3b26ab45c75ed3c0c289cbf"
wmake libso /home/openfoam/work/dynamicCode/_1468c45fe11c9da1d3b26ab45c75ed3c0c289cbf
    ln: ./lnInclude
    wmkdep: codeStreamTemplate.C
    Ctoo: codeStreamTemplate.C
    ld: /home/openfoam/work/dynamicCode/_1468c45fe11c9da1d3b26ab45c75ed3c0c289cbf/../platforms/linuxArm64GccDPInt32Opt/lib/libcodeStream_1468c45fe11c9da1d3b26ab45c75ed3c0c289cbf.so
Expanding #calc at line 82 in file "/home/openfoam/work/system/../system/blockMeshDict"
Creating new library in "dynamicCode/_fafd230643a4e3720a46bb5d075ea498de35fe8c/platforms/linuxArm64GccDPInt32Opt/lib/libcodeStream_fafd230643a4e3720a46bb5d075ea498de35fe8c.so"
"/opt/openfoam13/etc/codeTemplates/dynamicCode/codeStreamTemplate.C" "/home/openfoam/work/dynamicCode/_fafd230643a4e3720a46bb5d075ea498de35fe8c/codeStreamTemplate.C"
Invoking "wmake -s libso /home/openfoam/work/dynamicCode/_fafd230643a4e3720a46bb5d075ea498de35fe8c"
wmake libso /home/openfoam/work/dynamicCode/_fafd230643a4e3720a46bb5d075ea498de35fe8c
    ln: ./lnInclude
    wmkdep: codeStreamTemplate.C
    Ctoo: codeStreamTemplate.C
    ld: /home/openfoam/work/dynamicCode/_fafd230643a4e3720a46bb5d075ea498de35fe8c/../platforms/linuxArm64GccDPInt32Opt/lib/libcodeStream_fafd230643a4e3720a46bb5d075ea498de35fe8c.so
Expanding #calc at line 83 in file "/home/openfoam/work/system/../system/blockMeshDict"
Creating new library in "dynamicCode/_a131061b3375202f0a84d508ce4c60e00ea83faf/platforms/linuxArm64GccDPInt32Opt/lib/libcodeStream_a131061b3375202f0a84d508ce4c60e00ea83faf.so"
"/opt/openfoam13/etc/codeTemplates/dynamicCode/codeStreamTemplate.C" "/home/openfoam/work/dynamicCode/_a131061b3375202f0a84d508ce4c60e00ea83faf/codeStreamTemplate.C"
Invoking "wmake -s libso /home/openfoam/work/dynamicCode/_a131061b3375202f0a84d508ce4c60e00ea83faf"
wmake libso /home/openfoam/work/dynamicCode/_a131061b3375202f0a84d508ce4c60e00ea83faf
    ln: ./lnInclude
    wmkdep: codeStreamTemplate.C
    Ctoo: codeStreamTemplate.C
    ld: /home/openfoam/work/dynamicCode/_a131061b3375202f0a84d508ce4c60e00ea83faf/../platforms/linuxArm64GccDPInt32Opt/lib/libcodeStream_a131061b3375202f0a84d508ce4c60e00ea83faf.so
Expanding #calc at line 84 in file "/home/openfoam/work/system/../system/blockMeshDict"
Creating new library in "dynamicCode/_abfa0e374d753026b52442104a677bfdd13742f4/platforms/linuxArm64GccDPInt32Opt/lib/libcodeStream_abfa0e374d753026b52442104a677bfdd13742f4.so"
"/opt/openfoam13/etc/codeTemplates/dynamicCode/codeStreamTemplate.C" "/home/openfoam/work/dynamicCode/_abfa0e374d753026b52442104a677bfdd13742f4/codeStreamTemplate.C"
Invoking "wmake -s libso /home/openfoam/work/dynamicCode/_abfa0e374d753026b52442104a677bfdd13742f4"
wmake libso /home/openfoam/work/dynamicCode/_abfa0e374d753026b52442104a677bfdd13742f4
    ln: ./lnInclude
    wmkdep: codeStreamTemplate.C
    Ctoo: codeStreamTemplate.C
    ld: /home/openfoam/work/dynamicCode/_abfa0e374d753026b52442104a677bfdd13742f4/../platforms/linuxArm64GccDPInt32Opt/lib/libcodeStream_abfa0e374d753026b52442104a677bfdd13742f4.so
Expanding #calc at line 86 in file "/home/openfoam/work/system/../system/blockMeshDict"
Creating new library in "dynamicCode/_b5a4b66399465b976832d240d7d34f59c5f47d2f/platforms/linuxArm64GccDPInt32Opt/lib/libcodeStream_b5a4b66399465b976832d240d7d34f59c5f47d2f.so"
"/opt/openfoam13/etc/codeTemplates/dynamicCode/codeStreamTemplate.C" "/home/openfoam/work/dynamicCode/_b5a4b66399465b976832d240d7d34f59c5f47d2f/codeStreamTemplate.C"
Invoking "wmake -s libso /home/openfoam/work/dynamicCode/_b5a4b66399465b976832d240d7d34f59c5f47d2f"
wmake libso /home/openfoam/work/dynamicCode/_b5a4b66399465b976832d240d7d34f59c5f47d2f
    ln: ./lnInclude
    wmkdep: codeStreamTemplate.C
    Ctoo: codeStreamTemplate.C
    ld: /home/openfoam/work/dynamicCode/_b5a4b66399465b976832d240d7d34f59c5f47d2f/../platforms/linuxArm64GccDPInt32Opt/lib/libcodeStream_b5a4b66399465b976832d240d7d34f59c5f47d2f.so
Expanding #calc at line 88 in file "/home/openfoam/work/system/../system/blockMeshDict"
Creating new library in "dynamicCode/_6f798369793b0b2ca6ca9a8ca5cd9c5d29ce362c/platforms/linuxArm64GccDPInt32Opt/lib/libcodeStream_6f798369793b0b2ca6ca9a8ca5cd9c5d29ce362c.so"
"/opt/openfoam13/etc/codeTemplates/dynamicCode/codeStreamTemplate.C" "/home/openfoam/work/dynamicCode/_6f798369793b0b2ca6ca9a8ca5cd9c5d29ce362c/codeStreamTemplate.C"
Invoking "wmake -s libso /home/openfoam/work/dynamicCode/_6f798369793b0b2ca6ca9a8ca5cd9c5d29ce362c"
wmake libso /home/openfoam/work/dynamicCode/_6f798369793b0b2ca6ca9a8ca5cd9c5d29ce362c
    ln: ./lnInclude
    wmkdep: codeStreamTemplate.C
    Ctoo: codeStreamTemplate.C
    ld: /home/openfoam/work/dynamicCode/_6f798369793b0b2ca6ca9a8ca5cd9c5d29ce362c/../platforms/linuxArm64GccDPInt32Opt/lib/libcodeStream_6f798369793b0b2ca6ca9a8ca5cd9c5d29ce362c.so
Expanding #calc at line 89 in file "/home/openfoam/work/system/../system/blockMeshDict"
Expanding #calc at line 116 in file "/home/openfoam/work/system/../system/blockMeshDict"
Creating new library in "dynamicCode/_b76321560e2ed43561906c80c82067b67f860a1a/platforms/linuxArm64GccDPInt32Opt/lib/libcodeStream_b76321560e2ed43561906c80c82067b67f860a1a.so"
"/opt/openfoam13/etc/codeTemplates/dynamicCode/codeStreamTemplate.C" "/home/openfoam/work/dynamicCode/_b76321560e2ed43561906c80c82067b67f860a1a/codeStreamTemplate.C"
Invoking "wmake -s libso /home/openfoam/work/dynamicCode/_b76321560e2ed43561906c80c82067b67f860a1a"
wmake libso /home/openfoam/work/dynamicCode/_b76321560e2ed43561906c80c82067b67f860a1a
    ln: ./lnInclude
    wmkdep: codeStreamTemplate.C
    Ctoo: codeStreamTemplate.C
    ld: /home/openfoam/work/dynamicCode/_b76321560e2ed43561906c80c82067b67f860a1a/../platforms/linuxArm64GccDPInt32Opt/lib/libcodeStream_b76321560e2ed43561906c80c82067b67f860a1a.so
Expanding #calc at line 117 in file "/home/openfoam/work/system/../system/blockMeshDict"
Creating new library in "dynamicCode/_dab03e35a8c1ca8c187a1a58387f46088cecf9bb/platforms/linuxArm64GccDPInt32Opt/lib/libcodeStream_dab03e35a8c1ca8c187a1a58387f46088cecf9bb.so"
"/opt/openfoam13/etc/codeTemplates/dynamicCode/codeStreamTemplate.C" "/home/openfoam/work/dynamicCode/_dab03e35a8c1ca8c187a1a58387f46088cecf9bb/codeStreamTemplate.C"
Invoking "wmake -s libso /home/openfoam/work/dynamicCode/_dab03e35a8c1ca8c187a1a58387f46088cecf9bb"
wmake libso /home/openfoam/work/dynamicCode/_dab03e35a8c1ca8c187a1a58387f46088cecf9bb
    ln: ./lnInclude
    wmkdep: codeStreamTemplate.C
    Ctoo: codeStreamTemplate.C
    ld: /home/openfoam/work/dynamicCode/_dab03e35a8c1ca8c187a1a58387f46088cecf9bb/../platforms/linuxArm64GccDPInt32Opt/lib/libcodeStream_dab03e35a8c1ca8c187a1a58387f46088cecf9bb.so
Expanding #calc at line 25 in file "/home/openfoam/work/system/../system/blockMeshDict"
Expanding #calc at line 29 in file "/home/openfoam/work/system/../system/blockMeshDict"
Expanding #calc at line 32 in file "/home/openfoam/work/system/../system/blockMeshDict"
Expanding #calc at line 35 in file "/home/openfoam/work/system/../system/blockMeshDict"
Expanding #calc at line 36 in file "/home/openfoam/work/system/../system/blockMeshDict"
Expanding #calc at line 42 in file "/home/openfoam/work/system/../system/blockMeshDict"
Expanding #calc at line 82 in file "/home/openfoam/work/system/../system/blockMeshDict"
Expanding #calc at line 83 in file "/home/openfoam/work/system/../system/blockMeshDict"
Expanding #calc at line 84 in file "/home/openfoam/work/system/../system/blockMeshDict"
Expanding #calc at line 86 in file "/home/openfoam/work/system/../system/blockMeshDict"
Expanding #calc at line 88 in file "/home/openfoam/work/system/../system/blockMeshDict"
Expanding #calc at line 89 in file "/home/openfoam/work/system/../system/blockMeshDict"
Expanding #calc at line 116 in file "/home/openfoam/work/system/../system/blockMeshDict"
Expanding #calc at line 117 in file "/home/openfoam/work/system/../system/blockMeshDict"
Deleting polyMesh directory
    "/home/openfoam/work/constant/polyMesh"
Reading "blockMeshDict"

Creating block mesh from
    "system/blockMeshDict"
Expanding #calc at line 25 in file "/home/openfoam/work/system/blockMeshDict"
Expanding #calc at line 29 in file "/home/openfoam/work/system/blockMeshDict"
Expanding #calc at line 32 in file "/home/openfoam/work/system/blockMeshDict"
Expanding #calc at line 35 in file "/home/openfoam/work/system/blockMeshDict"
Expanding #calc at line 36 in file "/home/openfoam/work/system/blockMeshDict"
Expanding #calc at line 42 in file "/home/openfoam/work/system/blockMeshDict"
Expanding #calc at line 82 in file "/home/openfoam/work/system/blockMeshDict"
Expanding #calc at line 83 in file "/home/openfoam/work/system/blockMeshDict"
Expanding #calc at line 84 in file "/home/openfoam/work/system/blockMeshDict"
Expanding #calc at line 86 in file "/home/openfoam/work/system/blockMeshDict"
Expanding #calc at line 88 in file "/home/openfoam/work/system/blockMeshDict"
Expanding #calc at line 89 in file "/home/openfoam/work/system/blockMeshDict"
Expanding #calc at line 116 in file "/home/openfoam/work/system/blockMeshDict"
Expanding #calc at line 117 in file "/home/openfoam/work/system/blockMeshDict"
Creating block edges
No non-planar block faces defined
Creating topology blocks
Creating topology patches

Creating block mesh topology

Basic statistics
    Number of internal faces : 8
    Number of boundary faces : 26
    Number of defined boundary faces : 26
    Number of undefined boundary faces : 0

Checking topology
Creating block offsets
Creating merge list .

Creating polyMesh from blockMesh
Creating points with scale 1
    Block 0 cell size :
        i : 0.0015326672 .. 1.5326672
        j : 0.067613608 .. 0.13491776 0.067820866 .. 0.13533133 0.067613608 .. 0.13491776 0.067820866 .. 0.13533133 
        k : 1
    Block 1 cell size :
        i : 0.0015326672 .. 1.5326672
        j : 0.13052619 .. 0.13052619 0.1309263 .. 0.1309263 0.13052619 .. 0.13052619 0.1309263 .. 0.1309263 
        k : 1
    Block 2 cell size :
        i : 1.8757759 .. 4.8770173 1.8594326 .. 4.9341301 1.8757759 .. 4.8770173 1.8594326 .. 4.9341301 
        j : 0.54090886 .. 1.0793421 0.67016068 .. 1.1178881 0.54090886 .. 1.0793421 0.67016068 .. 1.1178881 
        k : 1
    Block 3 cell size :
        i : 5.3878465 .. 32.327079
        j : 1.2923107 .. 2.5846214
        k : 1
    Block 4 cell size :
        i : 1.6531468 .. 82.65734
        j : 1.0442095 .. 1.0442095 1.4757675 .. 1.4757675 1.0442095 .. 1.0442095 1.4757675 .. 1.4757675 
        k : 1
    Block 5 cell size :
        i : 2.6994186 .. 7.013581 2.683785 .. 6.9917658 2.6994186 .. 7.013581 2.683785 .. 6.9917658 
        j : 1.6531468 .. 82.65734 1.6229929 .. 81.149644 1.6531468 .. 82.65734 1.6229929 .. 81.149644 
        k : 1
    Block 6 cell size :
        i : 5.3878465 .. 32.327079
        j : 1.4637237 .. 73.186187
        k : 1
Creating cells
Creating patches

Writing polyMesh
----------------
Mesh Information
----------------
  boundingBox: (-100 -1.6779128e-15 -0.5) (100 100 0.5)
  nPoints: 702
  nCells: 310
  nFaces: 1280
  nInternalFaces: 580
----------------
Patches
----------------
  patch 0 (start: 580 size: 16) name: inlet
  patch 1 (start: 596 size: 11) name: outlet
  patch 2 (start: 607 size: 14) name: cylinder
  patch 3 (start: 621 size: 659) name: frontAndBack

End

