/*---------------------------------------------------------------------------*\
  =========                 |
  \\      /  F ield         | OpenFOAM: The Open Source CFD Toolbox
   \\    /   O peration     | Website:  https://openfoam.org
    \\  /    A nd           | Version:  13
     \\/     M anipulation  |
\*---------------------------------------------------------------------------*/
Build  : 13-cde978a97c93
Exec   : mirrorMesh
Date   : Dec 15 2025
Time   : 22:12:27
Host   : "3bb201daff99"
PID    : 2629
I/O    : uncollated
Case   : /home/openfoam/work/FVM/Ejercicio_7/cylinder
nProcs : 1
sigFpe : Floating point exception trapping - not supported on this platform
fileModificationChecking : Monitoring run-time modified files using timeStampMaster (fileModificationSkew 10)
allowSystemOperations : Allowing user-supplied system call operations

// * * * * * * * * * * * * * * * * * * * * * * * * * * * * * * * * * * * * * //
Create time

Expanding #calc at line 24 in file "/home/openfoam/work/FVM/Ejercicio_7/cylinder/system/../system/blockMeshDict"
Expanding #calc at line 28 in file "/home/openfoam/work/FVM/Ejercicio_7/cylinder/system/../system/blockMeshDict"
Expanding #calc at line 31 in file "/home/openfoam/work/FVM/Ejercicio_7/cylinder/system/../system/blockMeshDict"
Expanding #calc at line 34 in file "/home/openfoam/work/FVM/Ejercicio_7/cylinder/system/../system/blockMeshDict"
Expanding #calc at line 35 in file "/home/openfoam/work/FVM/Ejercicio_7/cylinder/system/../system/blockMeshDict"
Expanding #calc at line 41 in file "/home/openfoam/work/FVM/Ejercicio_7/cylinder/system/../system/blockMeshDict"
Expanding #calc at line 81 in file "/home/openfoam/work/FVM/Ejercicio_7/cylinder/system/../system/blockMeshDict"
Expanding #calc at line 82 in file "/home/openfoam/work/FVM/Ejercicio_7/cylinder/system/../system/blockMeshDict"
Expanding #calc at line 83 in file "/home/openfoam/work/FVM/Ejercicio_7/cylinder/system/../system/blockMeshDict"
Expanding #calc at line 85 in file "/home/openfoam/work/FVM/Ejercicio_7/cylinder/system/../system/blockMeshDict"
Expanding #calc at line 87 in file "/home/openfoam/work/FVM/Ejercicio_7/cylinder/system/../system/blockMeshDict"
Expanding #calc at line 88 in file "/home/openfoam/work/FVM/Ejercicio_7/cylinder/system/../system/blockMeshDict"
Expanding #calc at line 115 in file "/home/openfoam/work/FVM/Ejercicio_7/cylinder/system/../system/blockMeshDict"
Expanding #calc at line 116 in file "/home/openfoam/work/FVM/Ejercicio_7/cylinder/system/../system/blockMeshDict"
Expanding #calc at line 24 in file "/home/openfoam/work/FVM/Ejercicio_7/cylinder/system/../system/blockMeshDict"
Expanding #calc at line 28 in file "/home/openfoam/work/FVM/Ejercicio_7/cylinder/system/../system/blockMeshDict"
Expanding #calc at line 31 in file "/home/openfoam/work/FVM/Ejercicio_7/cylinder/system/../system/blockMeshDict"
Expanding #calc at line 34 in file "/home/openfoam/work/FVM/Ejercicio_7/cylinder/system/../system/blockMeshDict"
Expanding #calc at line 35 in file "/home/openfoam/work/FVM/Ejercicio_7/cylinder/system/../system/blockMeshDict"
Expanding #calc at line 41 in file "/home/openfoam/work/FVM/Ejercicio_7/cylinder/system/../system/blockMeshDict"
Expanding #calc at line 81 in file "/home/openfoam/work/FVM/Ejercicio_7/cylinder/system/../system/blockMeshDict"
Expanding #calc at line 82 in file "/home/openfoam/work/FVM/Ejercicio_7/cylinder/system/../system/blockMeshDict"
Expanding #calc at line 83 in file "/home/openfoam/work/FVM/Ejercicio_7/cylinder/system/../system/blockMeshDict"
Expanding #calc at line 85 in file "/home/openfoam/work/FVM/Ejercicio_7/cylinder/system/../system/blockMeshDict"
Expanding #calc at line 87 in file "/home/openfoam/work/FVM/Ejercicio_7/cylinder/system/../system/blockMeshDict"
Expanding #calc at line 88 in file "/home/openfoam/work/FVM/Ejercicio_7/cylinder/system/../system/blockMeshDict"
Expanding #calc at line 115 in file "/home/openfoam/work/FVM/Ejercicio_7/cylinder/system/../system/blockMeshDict"
Expanding #calc at line 116 in file "/home/openfoam/work/FVM/Ejercicio_7/cylinder/system/../system/blockMeshDict"
Reading "mirrorMeshDict"

Expanding #calc at line 24 in file "/home/openfoam/work/FVM/Ejercicio_7/cylinder/system/mirrorMeshDict"
Expanding #calc at line 24 in file "/home/openfoam/work/FVM/Ejercicio_7/cylinder/system/blockMeshDict"
Expanding #calc at line 28 in file "/home/openfoam/work/FVM/Ejercicio_7/cylinder/system/blockMeshDict"
Expanding #calc at line 31 in file "/home/openfoam/work/FVM/Ejercicio_7/cylinder/system/blockMeshDict"
Expanding #calc at line 34 in file "/home/openfoam/work/FVM/Ejercicio_7/cylinder/system/blockMeshDict"
Expanding #calc at line 35 in file "/home/openfoam/work/FVM/Ejercicio_7/cylinder/system/blockMeshDict"
Expanding #calc at line 41 in file "/home/openfoam/work/FVM/Ejercicio_7/cylinder/system/blockMeshDict"
Expanding #calc at line 81 in file "/home/openfoam/work/FVM/Ejercicio_7/cylinder/system/blockMeshDict"
Expanding #calc at line 82 in file "/home/openfoam/work/FVM/Ejercicio_7/cylinder/system/blockMeshDict"
Expanding #calc at line 83 in file "/home/openfoam/work/FVM/Ejercicio_7/cylinder/system/blockMeshDict"
Expanding #calc at line 85 in file "/home/openfoam/work/FVM/Ejercicio_7/cylinder/system/blockMeshDict"
Expanding #calc at line 87 in file "/home/openfoam/work/FVM/Ejercicio_7/cylinder/system/blockMeshDict"
Expanding #calc at line 88 in file "/home/openfoam/work/FVM/Ejercicio_7/cylinder/system/blockMeshDict"
Expanding #calc at line 115 in file "/home/openfoam/work/FVM/Ejercicio_7/cylinder/system/blockMeshDict"
Expanding #calc at line 116 in file "/home/openfoam/work/FVM/Ejercicio_7/cylinder/system/blockMeshDict"
Creating new library in "dynamicCode/_07ea460c6bb80ad7bf3ef857457feeeffeb7cffa/platforms/linuxArm64GccDPInt32Opt/lib/libcodeStream_07ea460c6bb80ad7bf3ef857457feeeffeb7cffa.so"
"/opt/openfoam13/etc/codeTemplates/dynamicCode/codeStreamTemplate.C" "/home/openfoam/work/FVM/Ejercicio_7/cylinder/dynamicCode/_07ea460c6bb80ad7bf3ef857457feeeffeb7cffa/codeStreamTemplate.C"
Invoking "wmake -s libso /home/openfoam/work/FVM/Ejercicio_7/cylinder/dynamicCode/_07ea460c6bb80ad7bf3ef857457feeeffeb7cffa"
wmake libso /home/openfoam/work/FVM/Ejercicio_7/cylinder/dynamicCode/_07ea460c6bb80ad7bf3ef857457feeeffeb7cffa
    ln: ./lnInclude
    wmkdep: codeStreamTemplate.C
    Ctoo: codeStreamTemplate.C
    ld: /home/openfoam/work/FVM/Ejercicio_7/cylinder/dynamicCode/_07ea460c6bb80ad7bf3ef857457feeeffeb7cffa/../platforms/linuxArm64GccDPInt32Opt/lib/libcodeStream_07ea460c6bb80ad7bf3ef857457feeeffeb7cffa.so
Expanding #calc at line 24 in file "/home/openfoam/work/FVM/Ejercicio_7/cylinder/system/blockMeshDict"
Expanding #calc at line 28 in file "/home/openfoam/work/FVM/Ejercicio_7/cylinder/system/blockMeshDict"
Expanding #calc at line 31 in file "/home/openfoam/work/FVM/Ejercicio_7/cylinder/system/blockMeshDict"
Expanding #calc at line 34 in file "/home/openfoam/work/FVM/Ejercicio_7/cylinder/system/blockMeshDict"
Expanding #calc at line 35 in file "/home/openfoam/work/FVM/Ejercicio_7/cylinder/system/blockMeshDict"
Expanding #calc at line 41 in file "/home/openfoam/work/FVM/Ejercicio_7/cylinder/system/blockMeshDict"
Expanding #calc at line 81 in file "/home/openfoam/work/FVM/Ejercicio_7/cylinder/system/blockMeshDict"
Expanding #calc at line 82 in file "/home/openfoam/work/FVM/Ejercicio_7/cylinder/system/blockMeshDict"
Expanding #calc at line 83 in file "/home/openfoam/work/FVM/Ejercicio_7/cylinder/system/blockMeshDict"
Expanding #calc at line 85 in file "/home/openfoam/work/FVM/Ejercicio_7/cylinder/system/blockMeshDict"
Expanding #calc at line 87 in file "/home/openfoam/work/FVM/Ejercicio_7/cylinder/system/blockMeshDict"
Expanding #calc at line 88 in file "/home/openfoam/work/FVM/Ejercicio_7/cylinder/system/blockMeshDict"
Expanding #calc at line 115 in file "/home/openfoam/work/FVM/Ejercicio_7/cylinder/system/blockMeshDict"
Expanding #calc at line 116 in file "/home/openfoam/work/FVM/Ejercicio_7/cylinder/system/blockMeshDict"
Mirroring points. Old points: 17564 New points: 34704
Mirroring faces. Old faces: 34491 New faces: 68772
Mirroring patches. Old patches: 4 New patches: 4
Mirroring cells.  Old cells: 8570 New cells: 17140
Mirroring cell shapes.

Creating new mesh
Writing mirrored mesh
End
